* /home/escience/erma/vhdlams/ehs_uebung/ADC//simple-testbench.cmd input netlist
* Creation Date : Mon Mar 21 14:15:34% CET 2011 
*


.tran 0.01us 2ms
.op
* User minimum step definition
.option hmin=1e-12
.option hmax=1e-5
* User integration method selection
.option trap
* User ELDO accuracy specification
.option eps=5e-3
.end

